Version 4
SHEET 1 884 680
WIRE 528 -48 400 -48
WIRE 736 -48 592 -48
WIRE 224 48 112 48
WIRE 400 48 400 -48
WIRE 400 48 288 48
WIRE 544 48 400 48
WIRE 736 48 736 -48
WIRE 736 48 608 48
WIRE 576 96 496 96
WIRE 496 112 496 96
WIRE 400 128 400 48
WIRE 464 128 400 128
WIRE 736 144 736 48
WIRE 736 144 528 144
WIRE 832 144 736 144
WIRE 112 160 112 48
WIRE 464 160 400 160
WIRE 576 224 576 96
WIRE 832 224 576 224
WIRE 112 272 112 240
WIRE 400 272 400 160
WIRE 496 368 496 176
WIRE 544 368 496 368
WIRE 656 368 608 368
WIRE 720 368 656 368
WIRE 832 368 832 224
WIRE 832 368 784 368
WIRE 496 544 496 368
WIRE 528 544 496 544
WIRE 704 544 608 544
WIRE 832 544 832 368
WIRE 832 544 784 544
WIRE 656 624 656 368
FLAG 112 272 0
FLAG 400 272 0
FLAG 656 624 0
SYMBOL Opamps\\UniversalOpamp2 496 144 R0
SYMATTR InstName U1
SYMATTR Value2 Avol=0.1Meg GBW=4Meg Slew=13Meg
SYMATTR SpiceLine2 en=0 enk=0 in=0 ink=0 Rin=1T
SYMBOL cap 592 -64 R90
WINDOW 0 0 32 VBottom 2
WINDOW 3 32 32 VTop 2
SYMATTR InstName C1
SYMATTR Value 449p
SYMBOL res2 608 32 R90
WINDOW 0 0 32 VBottom 2
WINDOW 3 32 32 VTop 2
SYMATTR InstName R3
SYMATTR Value 475.42k
SYMBOL res2 288 32 R90
WINDOW 0 0 32 VBottom 2
WINDOW 3 32 32 VTop 2
SYMATTR InstName R4
SYMATTR Value 26.643k
SYMBOL cap 608 352 R90
WINDOW 0 0 32 VBottom 2
WINDOW 3 32 32 VTop 2
SYMATTR InstName C2
SYMATTR Value 0.1µ
SYMBOL cap 784 352 R90
WINDOW 0 0 32 VBottom 2
WINDOW 3 32 32 VTop 2
SYMATTR InstName C3
SYMATTR Value 0.1µ
SYMBOL voltage 624 544 R90
WINDOW 0 -32 56 VBottom 2
WINDOW 3 32 56 VTop 2
WINDOW 123 0 0 Left 0
WINDOW 39 0 0 Left 0
SYMATTR InstName V2
SYMATTR Value 15
SYMBOL voltage 800 544 R90
WINDOW 0 -32 56 VBottom 2
WINDOW 3 32 56 VTop 2
WINDOW 123 0 0 Left 0
WINDOW 39 0 0 Left 0
SYMATTR InstName V3
SYMATTR Value 15
SYMBOL voltage 112 144 R0
WINDOW 123 24 124 Left 2
WINDOW 39 0 0 Left 0
WINDOW 3 -155 212 Left 2
SYMATTR Value2 AC 1
SYMATTR Value PULSE(0 1.06 0 1n 1n 2u 2m 100)
SYMATTR InstName V1
TEXT 832 144 Left 2 ;OUT
TEXT 80 304 Left 2 !.tran 1m
