Version 4
SHEET 1 880 864
WIRE 480 -96 256 -96
WIRE 432 -32 352 -32
WIRE 352 16 352 -32
WIRE 256 32 256 -96
WIRE 320 32 256 32
WIRE 480 48 480 -96
WIRE 480 48 384 48
WIRE 544 48 480 48
WIRE 704 48 624 48
WIRE 64 64 0 64
WIRE 192 64 128 64
WIRE 320 64 192 64
WIRE 0 144 0 64
WIRE 192 144 192 64
WIRE 704 160 704 48
WIRE 0 272 0 224
WIRE 192 272 192 224
WIRE 704 272 704 224
WIRE 352 384 352 80
WIRE 352 384 192 384
WIRE 432 384 432 -32
WIRE 800 384 432 384
WIRE 192 592 192 384
WIRE 304 592 192 592
WIRE 496 592 368 592
WIRE 624 592 496 592
WIRE 800 592 800 384
WIRE 800 592 688 592
WIRE 192 800 192 592
WIRE 304 800 192 800
WIRE 496 800 496 592
WIRE 496 800 384 800
WIRE 608 800 496 800
WIRE 800 800 800 592
WIRE 800 800 688 800
WIRE 496 832 496 800
FLAG 496 832 0
FLAG 0 272 0
FLAG 192 272 0
FLAG 704 272 0
SYMBOL voltage 0 128 R0
SYMATTR InstName V1
SYMBOL cap 128 48 R90
WINDOW 0 0 32 VBottom 2
WINDOW 3 32 32 VTop 2
SYMATTR InstName C1
SYMBOL cap 720 224 R180
WINDOW 0 24 56 Left 2
WINDOW 3 24 8 Left 2
SYMATTR InstName C2
SYMBOL res 176 128 R0
SYMATTR InstName R1
SYMATTR Value 68.182k
SYMBOL res 640 32 R90
WINDOW 0 0 56 VBottom 2
WINDOW 3 32 56 VTop 2
SYMATTR InstName R2
SYMATTR Value 68.182
SYMBOL Opamps\\UniversalOpamp2 352 48 R0
SYMATTR InstName U1
SYMBOL cap 368 576 R90
WINDOW 0 0 32 VBottom 2
WINDOW 3 32 32 VTop 2
SYMATTR InstName C3
SYMBOL voltage 400 800 R90
WINDOW 0 -32 56 VBottom 2
WINDOW 3 32 56 VTop 2
SYMATTR InstName V2
SYMBOL voltage 704 800 R90
WINDOW 0 -32 56 VBottom 2
WINDOW 3 32 56 VTop 2
SYMATTR InstName V3
SYMBOL cap 688 576 R90
WINDOW 0 0 32 VBottom 2
WINDOW 3 32 32 VTop 2
SYMATTR InstName C4
